Version 4
SHEET 1 912 680
WIRE -272 32 -416 32
WIRE -416 96 -416 32
WIRE -384 96 -416 96
WIRE -272 112 -272 32
WIRE -272 112 -320 112
WIRE -144 112 -272 112
WIRE -16 112 -144 112
WIRE 64 112 -16 112
WIRE 240 112 144 112
WIRE -384 128 -640 128
WIRE 240 144 240 112
WIRE -640 160 -640 128
WIRE -144 160 -144 112
WIRE -16 160 -16 112
WIRE -640 272 -640 240
WIRE -144 272 -144 224
WIRE -144 272 -640 272
WIRE -16 272 -16 224
WIRE -16 272 -144 272
WIRE 160 272 -16 272
WIRE 240 272 240 224
WIRE 240 272 160 272
WIRE 160 304 160 272
FLAG 160 304 0
SYMBOL voltage 240 128 R0
WINDOW 3 12 208 Left 2
WINDOW 123 0 0 Left 2
WINDOW 39 0 0 Left 2
SYMATTR InstName V1
SYMATTR Value PULSE(1 20000 10e-6 0 0 20e-6 .2 1)
SYMBOL res 160 96 R90
WINDOW 0 0 56 VBottom 2
WINDOW 3 32 56 VTop 2
SYMATTR InstName R2
SYMATTR Value 23.2k
SYMBOL zener 0 224 R180
WINDOW 0 24 64 Left 2
WINDOW 3 24 0 Left 2
SYMATTR InstName D2
SYMATTR Value 1N750
SYMATTR Description Diode
SYMATTR Type diode
SYMBOL voltage -640 144 R0
WINDOW 123 0 0 Left 2
WINDOW 39 0 0 Left 2
SYMATTR InstName V2
SYMATTR Value 1
SYMBOL cap -160 160 R0
SYMATTR InstName C1
SYMATTR Value 1n
SYMBOL Opamps\\LT1001 -352 48 R0
SYMATTR InstName U1
TEXT -82 372 Left 2 !.tran 50e-6
